<?xml version="1.0" encoding="UTF-8"?>

<!-- generated on 2022-06-23 21:55:25 by Eclipse SUMO netedit Version 1.13.0
<configuration xmlns:xsi="http://www.w3.org/2001/XMLSchema-instance" xsi:noNamespaceSchemaLocation="http://sumo.dlr.de/xsd/netconvertConfiguration.xsd">

    <output>
        <output-file value="C:\Users\nurus\Sumo\Platoon2\platoon2.net.xml"/>
    </output>

    <processing>
        <offset.disable-normalization value="true"/>
    </processing>

    <junctions>
        <no-turnarounds value="true"/>
    </junctions>

    <report>
        <aggregate-warnings value="5"/>
    </report>

</configuration>
-->

<net version="1.9" junctionCornerDetail="5" limitTurnSpeed="5.50" xmlns:xsi="http://www.w3.org/2001/XMLSchema-instance" xsi:noNamespaceSchemaLocation="http://sumo.dlr.de/xsd/net_file.xsd">

    <location netOffset="0.00,0.00" convBoundary="-5900.00,900.00,6600.00,2700.00" origBoundary="10000000000.00,10000000000.00,-10000000000.00,-10000000000.00" projParameter="!"/>

    <edge id=":J0_0" function="internal">
        <lane id=":J0_0_0" index="0" speed="13.89" length="20.59" shape="-5516.34,1490.04 -5512.71,1491.29 -5508.32,1491.86 -5502.86,1492.01 -5496.00,1492.00"/>
    </edge>
    <edge id=":J0_1" function="internal">
        <lane id=":J0_1_0" index="0" speed="13.89" length="21.62" shape="-5517.46,1493.99 -5513.58,1494.19 -5508.95,1493.45 -5503.22,1492.48 -5496.00,1492.00"/>
    </edge>
    <edge id=":J0_2" function="internal">
        <lane id=":J0_2_0" index="0" speed="13.89" length="21.09" shape="-5516.80,1498.40 -5512.92,1497.90 -5508.47,1496.80 -5502.99,1495.70 -5496.00,1495.20"/>
    </edge>
    <edge id=":J0_3" function="internal">
        <lane id=":J0_3_0" index="0" speed="13.89" length="18.82" shape="-5513.34,1504.88 -5510.05,1502.93 -5506.47,1500.80 -5501.99,1499.10 -5496.00,1498.40"/>
    </edge>
    <edge id=":J0_4" function="internal">
        <lane id=":J0_4_0" index="0" speed="13.89" length="18.15" shape="-5510.75,1508.49 -5506.04,1504.07 -5502.02,1500.92 -5498.67,1499.03 -5496.00,1498.40"/>
    </edge>
    <edge id=":J1_0" function="internal">
        <lane id=":J1_0_0" index="0" speed="13.89" length="16.54" shape="-3601.76,1492.00 -3585.22,1492.00"/>
        <lane id=":J1_0_1" index="1" speed="13.89" length="16.54" shape="-3601.76,1495.20 -3585.22,1495.20"/>
        <lane id=":J1_0_2" index="2" speed="13.89" length="16.54" shape="-3601.76,1498.40 -3585.22,1498.40"/>
    </edge>
    <edge id=":J1_3" function="internal">
        <lane id=":J1_3_0" index="0" speed="12.51" length="15.68" shape="-3601.76,1498.40 -3596.66,1498.65 -3592.49,1499.39 -3589.26,1500.64 -3586.97,1502.38"/>
        <lane id=":J1_3_1" index="1" speed="11.95" length="14.27" shape="-3601.76,1498.40 -3598.43,1498.78 -3595.25,1499.94 -3592.21,1501.85 -3589.33,1504.54"/>
        <lane id=":J1_3_2" index="2" speed="11.51" length="13.21" shape="-3601.76,1498.40 -3600.21,1498.92 -3598.01,1500.48 -3595.17,1503.07 -3591.69,1506.70"/>
    </edge>
    <edge id=":J3_0" function="internal">
        <lane id=":J3_0_0" index="0" speed="13.89" length="17.14" shape="-1004.70,1492.00 -999.97,1491.31 -997.13,1489.41 -994.60,1486.58 -990.80,1483.10"/>
        <lane id=":J3_0_1" index="1" speed="13.89" length="17.58" shape="-1004.70,1492.00 -999.59,1491.73 -996.15,1490.75 -993.03,1488.81 -988.88,1485.66"/>
        <lane id=":J3_0_2" index="2" speed="13.89" length="18.73" shape="-1004.70,1492.00 -999.12,1492.17 -995.15,1492.15 -991.52,1491.11 -986.96,1488.22"/>
    </edge>
    <edge id=":J3_3" function="internal">
        <lane id=":J3_3_0" index="0" speed="13.89" length="19.00" shape="-1004.70,1492.00 -985.70,1492.00"/>
        <lane id=":J3_3_1" index="1" speed="13.89" length="19.00" shape="-1004.70,1495.20 -985.70,1495.20"/>
        <lane id=":J3_3_2" index="2" speed="13.89" length="19.00" shape="-1004.70,1498.40 -985.70,1498.40"/>
    </edge>
    <edge id=":J5_0" function="internal">
        <lane id=":J5_0_0" index="0" speed="13.89" length="16.39" shape="1598.18,1492.00 1614.57,1492.00"/>
        <lane id=":J5_0_1" index="1" speed="13.89" length="16.39" shape="1598.18,1495.20 1614.57,1495.20"/>
        <lane id=":J5_0_2" index="2" speed="13.89" length="16.39" shape="1598.18,1498.40 1614.57,1498.40"/>
    </edge>
    <edge id=":J5_3" function="internal">
        <lane id=":J5_3_0" index="0" speed="12.20" length="15.49" shape="1598.18,1498.40 1603.24,1498.65 1607.35,1499.40 1610.52,1500.66 1612.75,1502.42"/>
        <lane id=":J5_3_1" index="1" speed="11.63" length="14.03" shape="1598.18,1498.40 1601.49,1498.78 1604.62,1499.93 1607.57,1501.85 1610.34,1504.53"/>
        <lane id=":J5_3_2" index="2" speed="11.18" length="12.93" shape="1598.18,1498.40 1599.75,1498.91 1601.89,1500.46 1604.62,1503.03 1607.93,1506.63"/>
    </edge>

    <edge id="E0" from="J0" to="J1" priority="-1">
        <lane id="E0_0" index="0" speed="13.89" length="1894.24" shape="-5496.00,1492.00 -3601.76,1492.00"/>
        <lane id="E0_1" index="1" speed="13.89" length="1894.24" shape="-5496.00,1495.20 -3601.76,1495.20"/>
        <lane id="E0_2" index="2" speed="13.89" length="1894.24" shape="-5496.00,1498.40 -3601.76,1498.40"/>
    </edge>
    <edge id="E1" from="J1" to="J2" priority="-1">
        <lane id="E1_0" index="0" speed="13.89" length="1617.32" shape="-3586.97,1502.38 -2494.10,2694.59"/>
        <lane id="E1_1" index="1" speed="13.89" length="1617.32" shape="-3589.33,1504.54 -2496.46,2696.76"/>
        <lane id="E1_2" index="2" speed="13.89" length="1617.32" shape="-3591.69,1506.70 -2498.82,2698.92"/>
    </edge>
    <edge id="E10" from="J11" to="J0" priority="-1">
        <lane id="E10_0" index="0" speed="13.89" length="393.91" shape="-5899.61,1398.45 -5517.46,1493.99"/>
    </edge>
    <edge id="E11" from="J12" to="J0" priority="-1">
        <lane id="E11_0" index="0" speed="13.89" length="269.24" shape="-5701.13,1698.87 -5510.75,1508.49"/>
    </edge>
    <edge id="E12" from="J13" to="J0" priority="-1">
        <lane id="E12_0" index="0" speed="13.89" length="204.54" shape="-5699.28,1398.57 -5516.34,1490.04"/>
    </edge>
    <edge id="E2" from="J1" to="J3" priority="-1">
        <lane id="E2_0" index="0" speed="13.89" length="2580.52" shape="-3585.22,1492.00 -1004.70,1492.00"/>
        <lane id="E2_1" index="1" speed="13.89" length="2580.52" shape="-3585.22,1495.20 -1004.70,1495.20"/>
        <lane id="E2_2" index="2" speed="13.89" length="2580.52" shape="-3585.22,1498.40 -1004.70,1498.40"/>
    </edge>
    <edge id="E3" from="J3" to="J4" priority="-1">
        <lane id="E3_0" index="0" speed="13.89" length="982.50" shape="-990.80,1483.10 -204.80,893.60"/>
        <lane id="E3_1" index="1" speed="13.89" length="982.50" shape="-988.88,1485.66 -202.88,896.16"/>
        <lane id="E3_2" index="2" speed="13.89" length="982.50" shape="-986.96,1488.22 -200.96,898.72"/>
    </edge>
    <edge id="E4" from="J3" to="J5" priority="-1">
        <lane id="E4_0" index="0" speed="13.89" length="2583.88" shape="-985.70,1492.00 1598.18,1492.00"/>
        <lane id="E4_1" index="1" speed="13.89" length="2583.88" shape="-985.70,1495.20 1598.18,1495.20"/>
        <lane id="E4_2" index="2" speed="13.89" length="2583.88" shape="-985.70,1498.40 1598.18,1498.40"/>
    </edge>
    <edge id="E5" from="J5" to="J6" priority="-1">
        <lane id="E5_0" index="0" speed="13.89" length="1052.80" shape="1612.75,1502.42 2306.02,2294.73"/>
        <lane id="E5_1" index="1" speed="13.89" length="1052.80" shape="1610.34,1504.53 2303.61,2296.84"/>
        <lane id="E5_2" index="2" speed="13.89" length="1052.80" shape="1607.93,1506.63 2301.20,2298.95"/>
    </edge>
    <edge id="E6" from="J5" to="J7" priority="-1">
        <lane id="E6_0" index="0" speed="13.89" length="4985.43" shape="1614.57,1492.00 6600.00,1492.00"/>
        <lane id="E6_1" index="1" speed="13.89" length="4985.43" shape="1614.57,1495.20 6600.00,1495.20"/>
        <lane id="E6_2" index="2" speed="13.89" length="4985.43" shape="1614.57,1498.40 6600.00,1498.40"/>
    </edge>
    <edge id="E8" from="J9" to="J0" priority="-1">
        <lane id="E8_0" index="0" speed="13.89" length="433.09" shape="-5900.72,1698.57 -5513.34,1504.88"/>
    </edge>
    <edge id="E9" from="J10" to="J0" priority="-1">
        <lane id="E9_0" index="0" speed="13.89" length="383.20" shape="-5900.00,1498.40 -5516.80,1498.40"/>
    </edge>

    <junction id="J0" type="priority" x="-5500.00" y="1500.00" incLanes="E12_0 E10_0 E9_0 E8_0 E11_0" intLanes=":J0_0_0 :J0_1_0 :J0_2_0 :J0_3_0 :J0_4_0" shape="-5496.00,1500.00 -5496.00,1490.40 -5500.26,1490.57 -5503.51,1490.92 -5506.20,1491.16 -5508.81,1491.03 -5511.79,1490.27 -5515.62,1488.61 -5517.05,1491.47 -5517.07,1492.43 -5517.85,1495.54 -5516.80,1496.80 -5516.80,1500.00 -5514.06,1503.45 -5512.63,1506.31 -5511.88,1507.35 -5509.62,1509.62 -5506.57,1506.68 -5503.83,1504.27 -5501.40,1502.40 -5499.29,1501.07 -5497.49,1500.27">
        <request index="0" response="00000" foes="00010" cont="0"/>
        <request index="1" response="00001" foes="00001" cont="0"/>
        <request index="2" response="00000" foes="00000" cont="0"/>
        <request index="3" response="10000" foes="10000" cont="0"/>
        <request index="4" response="00000" foes="01000" cont="0"/>
    </junction>
    <junction id="J1" type="priority" x="-3600.00" y="1500.00" incLanes="E0_0 E0_1 E0_2" intLanes=":J1_0_0 :J1_0_1 :J1_0_2 :J1_3_0 :J1_3_1 :J1_3_2" shape="-3592.86,1507.78 -3585.79,1501.30 -3586.25,1500.58 -3586.24,1500.32 -3586.06,1500.14 -3585.72,1500.04 -3585.22,1500.00 -3585.22,1490.40 -3601.76,1490.40 -3601.76,1500.00 -3599.99,1500.86 -3598.66,1501.95 -3597.02,1503.46 -3595.09,1505.41">
        <request index="0" response="000000" foes="000000" cont="0"/>
        <request index="1" response="000000" foes="000000" cont="0"/>
        <request index="2" response="000000" foes="000000" cont="0"/>
        <request index="3" response="000000" foes="000000" cont="0"/>
        <request index="4" response="000000" foes="000000" cont="0"/>
        <request index="5" response="000000" foes="000000" cont="0"/>
    </junction>
    <junction id="J10" type="dead_end" x="-5900.00" y="1500.00" incLanes="" intLanes="" shape="-5900.00,1500.00 -5900.00,1496.80"/>
    <junction id="J11" type="dead_end" x="-5900.00" y="1400.00" incLanes="" intLanes="" shape="-5900.00,1400.00 -5899.22,1396.90"/>
    <junction id="J12" type="dead_end" x="-5700.00" y="1700.00" incLanes="" intLanes="" shape="-5700.00,1700.00 -5702.26,1697.74"/>
    <junction id="J13" type="dead_end" x="-5700.00" y="1400.00" incLanes="" intLanes="" shape="-5700.00,1400.00 -5698.57,1397.14"/>
    <junction id="J2" type="dead_end" x="-2500.00" y="2700.00" incLanes="E1_0 E1_1 E1_2" intLanes="" shape="-2492.92,2693.51 -2500.00,2700.00"/>
    <junction id="J3" type="priority" x="-1000.00" y="1500.00" incLanes="E2_0 E2_1 E2_2" intLanes=":J3_0_0 :J3_0_1 :J3_0_2 :J3_3_0 :J3_3_1 :J3_3_2" shape="-985.70,1500.00 -985.70,1490.40 -986.40,1490.30 -986.53,1490.18 -986.50,1490.00 -986.33,1489.78 -986.00,1489.50 -991.76,1481.82 -994.34,1484.07 -996.15,1486.11 -997.65,1487.86 -999.28,1489.21 -1001.48,1490.09 -1004.70,1490.40 -1004.70,1500.00">
        <request index="0" response="000000" foes="000000" cont="0"/>
        <request index="1" response="000000" foes="000000" cont="0"/>
        <request index="2" response="000000" foes="000000" cont="0"/>
        <request index="3" response="000000" foes="000000" cont="0"/>
        <request index="4" response="000000" foes="000000" cont="0"/>
        <request index="5" response="000000" foes="000000" cont="0"/>
    </junction>
    <junction id="J4" type="dead_end" x="-200.00" y="900.00" incLanes="E3_0 E3_1 E3_2" intLanes="" shape="-205.76,892.32 -200.00,900.00"/>
    <junction id="J5" type="priority" x="1600.00" y="1500.00" incLanes="E4_0 E4_1 E4_2" intLanes=":J5_0_0 :J5_0_1 :J5_0_2 :J5_3_0 :J5_3_1 :J5_3_2" shape="1606.73,1507.69 1613.95,1501.37 1613.49,1500.61 1613.51,1500.34 1613.70,1500.15 1614.05,1500.04 1614.57,1500.00 1614.57,1490.40 1598.18,1490.40 1598.18,1500.00 1599.94,1500.85 1601.23,1501.92 1602.79,1503.42 1604.62,1505.34">
        <request index="0" response="000000" foes="000000" cont="0"/>
        <request index="1" response="000000" foes="000000" cont="0"/>
        <request index="2" response="000000" foes="000000" cont="0"/>
        <request index="3" response="000000" foes="000000" cont="0"/>
        <request index="4" response="000000" foes="000000" cont="0"/>
        <request index="5" response="000000" foes="000000" cont="0"/>
    </junction>
    <junction id="J6" type="dead_end" x="2300.00" y="2300.00" incLanes="E5_0 E5_1 E5_2" intLanes="" shape="2307.22,2293.68 2300.00,2300.00"/>
    <junction id="J7" type="dead_end" x="6600.00" y="1500.00" incLanes="E6_0 E6_1 E6_2" intLanes="" shape="6600.00,1490.40 6600.00,1500.00"/>
    <junction id="J9" type="dead_end" x="-5900.00" y="1700.00" incLanes="" intLanes="" shape="-5900.00,1700.00 -5901.43,1697.14"/>

    <connection from="E0" to="E2" fromLane="0" toLane="0" via=":J1_0_0" dir="s" state="M"/>
    <connection from="E0" to="E2" fromLane="1" toLane="1" via=":J1_0_1" dir="s" state="M"/>
    <connection from="E0" to="E2" fromLane="2" toLane="2" via=":J1_0_2" dir="s" state="M"/>
    <connection from="E0" to="E1" fromLane="2" toLane="0" via=":J1_3_0" dir="l" state="M"/>
    <connection from="E0" to="E1" fromLane="2" toLane="1" via=":J1_3_1" dir="l" state="M"/>
    <connection from="E0" to="E1" fromLane="2" toLane="2" via=":J1_3_2" dir="l" state="M"/>
    <connection from="E10" to="E0" fromLane="0" toLane="0" via=":J0_1_0" dir="s" state="m"/>
    <connection from="E11" to="E0" fromLane="0" toLane="2" via=":J0_4_0" dir="l" state="M"/>
    <connection from="E12" to="E0" fromLane="0" toLane="0" via=":J0_0_0" dir="s" state="M"/>
    <connection from="E2" to="E3" fromLane="0" toLane="0" via=":J3_0_0" dir="R" state="M"/>
    <connection from="E2" to="E3" fromLane="0" toLane="1" via=":J3_0_1" dir="R" state="M"/>
    <connection from="E2" to="E3" fromLane="0" toLane="2" via=":J3_0_2" dir="R" state="M"/>
    <connection from="E2" to="E4" fromLane="0" toLane="0" via=":J3_3_0" dir="s" state="M"/>
    <connection from="E2" to="E4" fromLane="1" toLane="1" via=":J3_3_1" dir="s" state="M"/>
    <connection from="E2" to="E4" fromLane="2" toLane="2" via=":J3_3_2" dir="s" state="M"/>
    <connection from="E4" to="E6" fromLane="0" toLane="0" via=":J5_0_0" dir="s" state="M"/>
    <connection from="E4" to="E6" fromLane="1" toLane="1" via=":J5_0_1" dir="s" state="M"/>
    <connection from="E4" to="E6" fromLane="2" toLane="2" via=":J5_0_2" dir="s" state="M"/>
    <connection from="E4" to="E5" fromLane="2" toLane="0" via=":J5_3_0" dir="l" state="M"/>
    <connection from="E4" to="E5" fromLane="2" toLane="1" via=":J5_3_1" dir="l" state="M"/>
    <connection from="E4" to="E5" fromLane="2" toLane="2" via=":J5_3_2" dir="l" state="M"/>
    <connection from="E8" to="E0" fromLane="0" toLane="2" via=":J0_3_0" dir="s" state="m"/>
    <connection from="E9" to="E0" fromLane="0" toLane="1" via=":J0_2_0" dir="s" state="M"/>

    <connection from=":J0_0" to="E0" fromLane="0" toLane="0" dir="s" state="M"/>
    <connection from=":J0_1" to="E0" fromLane="0" toLane="0" dir="s" state="M"/>
    <connection from=":J0_2" to="E0" fromLane="0" toLane="1" dir="s" state="M"/>
    <connection from=":J0_3" to="E0" fromLane="0" toLane="2" dir="s" state="M"/>
    <connection from=":J0_4" to="E0" fromLane="0" toLane="2" dir="l" state="M"/>
    <connection from=":J1_0" to="E2" fromLane="0" toLane="0" dir="s" state="M"/>
    <connection from=":J1_0" to="E2" fromLane="1" toLane="1" dir="s" state="M"/>
    <connection from=":J1_0" to="E2" fromLane="2" toLane="2" dir="s" state="M"/>
    <connection from=":J1_3" to="E1" fromLane="0" toLane="0" dir="l" state="M"/>
    <connection from=":J1_3" to="E1" fromLane="1" toLane="1" dir="l" state="M"/>
    <connection from=":J1_3" to="E1" fromLane="2" toLane="2" dir="l" state="M"/>
    <connection from=":J3_0" to="E3" fromLane="0" toLane="0" dir="R" state="M"/>
    <connection from=":J3_0" to="E3" fromLane="1" toLane="1" dir="R" state="M"/>
    <connection from=":J3_0" to="E3" fromLane="2" toLane="2" dir="R" state="M"/>
    <connection from=":J3_3" to="E4" fromLane="0" toLane="0" dir="s" state="M"/>
    <connection from=":J3_3" to="E4" fromLane="1" toLane="1" dir="s" state="M"/>
    <connection from=":J3_3" to="E4" fromLane="2" toLane="2" dir="s" state="M"/>
    <connection from=":J5_0" to="E6" fromLane="0" toLane="0" dir="s" state="M"/>
    <connection from=":J5_0" to="E6" fromLane="1" toLane="1" dir="s" state="M"/>
    <connection from=":J5_0" to="E6" fromLane="2" toLane="2" dir="s" state="M"/>
    <connection from=":J5_3" to="E5" fromLane="0" toLane="0" dir="l" state="M"/>
    <connection from=":J5_3" to="E5" fromLane="1" toLane="1" dir="l" state="M"/>
    <connection from=":J5_3" to="E5" fromLane="2" toLane="2" dir="l" state="M"/>

</net>
